
*** ChampSim Multicore Out-of-Order Simulator ***

Warmup Instructions: 30000000
Simulation Instructions: 60000000
Number of CPUs: 1
LLC sets: 2048
LLC ways: 16
Off-chip DRAM Size: 4096 MB Channels: 1 Width: 64-bit Data Rate: 3200 MT/s

CPU 0 runs /home/khushangsingla/Documents/Semester-4/CS230/Project/ChampSim/dpc3_traces/cc-14.trace.gz
CPU 0 Bimodal branch predictor
Initialize SHIP state
Assign rand_sets[0]: 454  LLC: 2048
rand_sets[0]: 454
Assign rand_sets[1]: 1662  LLC: 2048
rand_sets[1]: 1662
Assign rand_sets[2]: 1921  LLC: 2048
rand_sets[2]: 1921
Assign rand_sets[3]: 1131  LLC: 2048
rand_sets[3]: 1131
Assign rand_sets[4]: 331  LLC: 2048
rand_sets[4]: 331
Assign rand_sets[5]: 1531  LLC: 2048
rand_sets[5]: 1531
Assign rand_sets[6]: 482  LLC: 2048
rand_sets[6]: 482
Assign rand_sets[7]: 1275  LLC: 2048
rand_sets[7]: 1275
Assign rand_sets[8]: 1876  LLC: 2048
rand_sets[8]: 1876
Assign rand_sets[9]: 2038  LLC: 2048
rand_sets[9]: 2038
Assign rand_sets[10]: 701  LLC: 2048
rand_sets[10]: 701
Assign rand_sets[11]: 479  LLC: 2048
rand_sets[11]: 479
Assign rand_sets[12]: 892  LLC: 2048
rand_sets[12]: 892
Assign rand_sets[13]: 1820  LLC: 2048
rand_sets[13]: 1820
Assign rand_sets[14]: 1505  LLC: 2048
rand_sets[14]: 1505
Assign rand_sets[15]: 1159  LLC: 2048
rand_sets[15]: 1159
Assign rand_sets[16]: 513  LLC: 2048
rand_sets[16]: 513
Assign rand_sets[17]: 703  LLC: 2048
rand_sets[17]: 703
Assign rand_sets[18]: 561  LLC: 2048
rand_sets[18]: 561
Assign rand_sets[19]: 990  LLC: 2048
rand_sets[19]: 990
Assign rand_sets[20]: 342  LLC: 2048
rand_sets[20]: 342
Assign rand_sets[21]: 882  LLC: 2048
rand_sets[21]: 882
Assign rand_sets[22]: 15  LLC: 2048
rand_sets[22]: 15
Assign rand_sets[23]: 71  LLC: 2048
rand_sets[23]: 71
Assign rand_sets[24]: 1127  LLC: 2048
rand_sets[24]: 1127
Assign rand_sets[25]: 1382  LLC: 2048
rand_sets[25]: 1382
Assign rand_sets[26]: 647  LLC: 2048
rand_sets[26]: 647
Assign rand_sets[27]: 857  LLC: 2048
rand_sets[27]: 857
Assign rand_sets[28]: 1450  LLC: 2048
rand_sets[28]: 1450
Assign rand_sets[29]: 1160  LLC: 2048
rand_sets[29]: 1160
Assign rand_sets[30]: 1852  LLC: 2048
rand_sets[30]: 1852
Assign rand_sets[31]: 1881  LLC: 2048
rand_sets[31]: 1881
Assign rand_sets[32]: 1770  LLC: 2048
rand_sets[32]: 1770
Assign rand_sets[33]: 1622  LLC: 2048
rand_sets[33]: 1622
Assign rand_sets[34]: 275  LLC: 2048
rand_sets[34]: 275
Assign rand_sets[35]: 635  LLC: 2048
rand_sets[35]: 635
Assign rand_sets[36]: 466  LLC: 2048
rand_sets[36]: 466
Assign rand_sets[37]: 1413  LLC: 2048
rand_sets[37]: 1413
Assign rand_sets[38]: 417  LLC: 2048
rand_sets[38]: 417
Assign rand_sets[39]: 472  LLC: 2048
rand_sets[39]: 472
Assign rand_sets[40]: 1340  LLC: 2048
rand_sets[40]: 1340
Assign rand_sets[41]: 852  LLC: 2048
rand_sets[41]: 852
Assign rand_sets[42]: 1365  LLC: 2048
rand_sets[42]: 1365
Assign rand_sets[43]: 47  LLC: 2048
rand_sets[43]: 47
Assign rand_sets[44]: 823  LLC: 2048
rand_sets[44]: 823
Assign rand_sets[45]: 686  LLC: 2048
rand_sets[45]: 686
Assign rand_sets[46]: 1637  LLC: 2048
rand_sets[46]: 1637
Assign rand_sets[47]: 1115  LLC: 2048
rand_sets[47]: 1115
Assign rand_sets[48]: 986  LLC: 2048
rand_sets[48]: 986
Assign rand_sets[49]: 258  LLC: 2048
rand_sets[49]: 258
Assign rand_sets[50]: 633  LLC: 2048
rand_sets[50]: 633
Assign rand_sets[51]: 920  LLC: 2048
rand_sets[51]: 920
Assign rand_sets[52]: 204  LLC: 2048
rand_sets[52]: 204
Assign rand_sets[53]: 227  LLC: 2048
rand_sets[53]: 227
Assign rand_sets[54]: 1818  LLC: 2048
rand_sets[54]: 1818
Assign rand_sets[55]: 886  LLC: 2048
rand_sets[55]: 886
Assign rand_sets[56]: 1422  LLC: 2048
rand_sets[56]: 1422
Assign rand_sets[57]: 607  LLC: 2048
rand_sets[57]: 607
Assign rand_sets[58]: 217  LLC: 2048
rand_sets[58]: 217
Assign rand_sets[59]: 1945  LLC: 2048
rand_sets[59]: 1945
Assign rand_sets[60]: 143  LLC: 2048
rand_sets[60]: 143
Assign rand_sets[61]: 1311  LLC: 2048
rand_sets[61]: 1311
Assign rand_sets[62]: 319  LLC: 2048
rand_sets[62]: 319
Assign rand_sets[63]: 1846  LLC: 2048
rand_sets[63]: 1846
Assign rand_sets[64]: 238  LLC: 2048
rand_sets[64]: 238
Assign rand_sets[65]: 67  LLC: 2048
rand_sets[65]: 67
Assign rand_sets[66]: 1912  LLC: 2048
rand_sets[66]: 1912
Assign rand_sets[67]: 1613  LLC: 2048
rand_sets[67]: 1613
Assign rand_sets[68]: 1293  LLC: 2048
rand_sets[68]: 1293
Assign rand_sets[69]: 1018  LLC: 2048
rand_sets[69]: 1018
Assign rand_sets[70]: 1982  LLC: 2048
rand_sets[70]: 1982
Assign rand_sets[71]: 1702  LLC: 2048
rand_sets[71]: 1702
Assign rand_sets[72]: 1498  LLC: 2048
rand_sets[72]: 1498
Assign rand_sets[73]: 228  LLC: 2048
rand_sets[73]: 228
Assign rand_sets[74]: 1414  LLC: 2048
rand_sets[74]: 1414
Assign rand_sets[75]: 1166  LLC: 2048
rand_sets[75]: 1166
Assign rand_sets[76]: 732  LLC: 2048
rand_sets[76]: 732
Assign rand_sets[77]: 297  LLC: 2048
rand_sets[77]: 297
Assign rand_sets[78]: 1133  LLC: 2048
rand_sets[78]: 1133
Assign rand_sets[79]: 846  LLC: 2048
rand_sets[79]: 846
Assign rand_sets[80]: 767  LLC: 2048
rand_sets[80]: 767
Assign rand_sets[81]: 1878  LLC: 2048
rand_sets[81]: 1878
Assign rand_sets[82]: 993  LLC: 2048
rand_sets[82]: 993
Assign rand_sets[83]: 1392  LLC: 2048
rand_sets[83]: 1392
Assign rand_sets[84]: 1568  LLC: 2048
rand_sets[84]: 1568
Assign rand_sets[85]: 1787  LLC: 2048
rand_sets[85]: 1787
Assign rand_sets[86]: 399  LLC: 2048
rand_sets[86]: 399
Assign rand_sets[87]: 1201  LLC: 2048
rand_sets[87]: 1201
Assign rand_sets[88]: 856  LLC: 2048
rand_sets[88]: 856
Assign rand_sets[89]: 773  LLC: 2048
rand_sets[89]: 773
Assign rand_sets[90]: 1680  LLC: 2048
rand_sets[90]: 1680
Assign rand_sets[91]: 1477  LLC: 2048
rand_sets[91]: 1477
Assign rand_sets[92]: 9  LLC: 2048
rand_sets[92]: 9
Assign rand_sets[93]: 1500  LLC: 2048
rand_sets[93]: 1500
Assign rand_sets[94]: 851  LLC: 2048
rand_sets[94]: 851
Assign rand_sets[95]: 973  LLC: 2048
rand_sets[95]: 973
Assign rand_sets[96]: 938  LLC: 2048
rand_sets[96]: 938
Assign rand_sets[97]: 1851  LLC: 2048
rand_sets[97]: 1851
Assign rand_sets[98]: 1608  LLC: 2048
rand_sets[98]: 1608
Assign rand_sets[99]: 1945  LLC: 2048
Assign rand_sets[99]: 1106  LLC: 2048
rand_sets[99]: 1106
Assign rand_sets[100]: 979  LLC: 2048
rand_sets[100]: 979
Assign rand_sets[101]: 338  LLC: 2048
rand_sets[101]: 338
Assign rand_sets[102]: 1693  LLC: 2048
rand_sets[102]: 1693
Assign rand_sets[103]: 6  LLC: 2048
rand_sets[103]: 6
Assign rand_sets[104]: 671  LLC: 2048
rand_sets[104]: 671
Assign rand_sets[105]: 490  LLC: 2048
rand_sets[105]: 490
Assign rand_sets[106]: 1461  LLC: 2048
rand_sets[106]: 1461
Assign rand_sets[107]: 1730  LLC: 2048
rand_sets[107]: 1730
Assign rand_sets[108]: 1030  LLC: 2048
rand_sets[108]: 1030
Assign rand_sets[109]: 19  LLC: 2048
rand_sets[109]: 19
Assign rand_sets[110]: 920  LLC: 2048
Assign rand_sets[110]: 329  LLC: 2048
rand_sets[110]: 329
Assign rand_sets[111]: 1714  LLC: 2048
rand_sets[111]: 1714
Assign rand_sets[112]: 1  LLC: 2048
rand_sets[112]: 1
Assign rand_sets[113]: 1822  LLC: 2048
rand_sets[113]: 1822
Assign rand_sets[114]: 172  LLC: 2048
rand_sets[114]: 172
Assign rand_sets[115]: 1586  LLC: 2048
rand_sets[115]: 1586
Assign rand_sets[116]: 648  LLC: 2048
rand_sets[116]: 648
Assign rand_sets[117]: 1329  LLC: 2048
rand_sets[117]: 1329
Assign rand_sets[118]: 668  LLC: 2048
rand_sets[118]: 668
Assign rand_sets[119]: 1874  LLC: 2048
rand_sets[119]: 1874
Assign rand_sets[120]: 70  LLC: 2048
rand_sets[120]: 70
Assign rand_sets[121]: 661  LLC: 2048
rand_sets[121]: 661
Assign rand_sets[122]: 1649  LLC: 2048
rand_sets[122]: 1649
Assign rand_sets[123]: 1590  LLC: 2048
rand_sets[123]: 1590
Assign rand_sets[124]: 911  LLC: 2048
rand_sets[124]: 911
Assign rand_sets[125]: 1367  LLC: 2048
rand_sets[125]: 1367
Assign rand_sets[126]: 1782  LLC: 2048
rand_sets[126]: 1782
Assign rand_sets[127]: 569  LLC: 2048
rand_sets[127]: 569
Assign rand_sets[128]: 1309  LLC: 2048
rand_sets[128]: 1309
Assign rand_sets[129]: 534  LLC: 2048
rand_sets[129]: 534
Assign rand_sets[130]: 1274  LLC: 2048
rand_sets[130]: 1274
Assign rand_sets[131]: 904  LLC: 2048
rand_sets[131]: 904
Assign rand_sets[132]: 1908  LLC: 2048
rand_sets[132]: 1908
Assign rand_sets[133]: 245  LLC: 2048
rand_sets[133]: 245
Assign rand_sets[134]: 1688  LLC: 2048
rand_sets[134]: 1688
Assign rand_sets[135]: 1660  LLC: 2048
rand_sets[135]: 1660
Assign rand_sets[136]: 1303  LLC: 2048
rand_sets[136]: 1303
Assign rand_sets[137]: 1628  LLC: 2048
rand_sets[137]: 1628
Assign rand_sets[138]: 1857  LLC: 2048
rand_sets[138]: 1857
Assign rand_sets[139]: 187  LLC: 2048
rand_sets[139]: 187
Assign rand_sets[140]: 1389  LLC: 2048
rand_sets[140]: 1389
Assign rand_sets[141]: 881  LLC: 2048
rand_sets[141]: 881
Assign rand_sets[142]: 1166  LLC: 2048
Assign rand_sets[142]: 1039  LLC: 2048
rand_sets[142]: 1039
Assign rand_sets[143]: 1136  LLC: 2048
rand_sets[143]: 1136
Assign rand_sets[144]: 601  LLC: 2048
rand_sets[144]: 601
Assign rand_sets[145]: 967  LLC: 2048
rand_sets[145]: 967
Assign rand_sets[146]: 769  LLC: 2048
rand_sets[146]: 769
Assign rand_sets[147]: 283  LLC: 2048
rand_sets[147]: 283
Assign rand_sets[148]: 559  LLC: 2048
rand_sets[148]: 559
Assign rand_sets[149]: 1075  LLC: 2048
rand_sets[149]: 1075
Assign rand_sets[150]: 829  LLC: 2048
rand_sets[150]: 829
Assign rand_sets[151]: 1681  LLC: 2048
rand_sets[151]: 1681
Assign rand_sets[152]: 1728  LLC: 2048
rand_sets[152]: 1728
Assign rand_sets[153]: 541  LLC: 2048
rand_sets[153]: 541
Assign rand_sets[154]: 421  LLC: 2048
rand_sets[154]: 421
Assign rand_sets[155]: 1037  LLC: 2048
rand_sets[155]: 1037
Assign rand_sets[156]: 13  LLC: 2048
rand_sets[156]: 13
Assign rand_sets[157]: 1707  LLC: 2048
rand_sets[157]: 1707
Assign rand_sets[158]: 1075  LLC: 2048
Assign rand_sets[158]: 1933  LLC: 2048
rand_sets[158]: 1933
Assign rand_sets[159]: 1406  LLC: 2048
rand_sets[159]: 1406
Assign rand_sets[160]: 94  LLC: 2048
rand_sets[160]: 94
Assign rand_sets[161]: 1423  LLC: 2048
rand_sets[161]: 1423
Assign rand_sets[162]: 1854  LLC: 2048
rand_sets[162]: 1854
Assign rand_sets[163]: 230  LLC: 2048
rand_sets[163]: 230
Assign rand_sets[164]: 104  LLC: 2048
rand_sets[164]: 104
Assign rand_sets[165]: 1652  LLC: 2048
rand_sets[165]: 1652
Assign rand_sets[166]: 1446  LLC: 2048
rand_sets[166]: 1446
Assign rand_sets[167]: 1338  LLC: 2048
rand_sets[167]: 1338
Assign rand_sets[168]: 177  LLC: 2048
rand_sets[168]: 177
Assign rand_sets[169]: 195  LLC: 2048
rand_sets[169]: 195
Assign rand_sets[170]: 1171  LLC: 2048
rand_sets[170]: 1171
Assign rand_sets[171]: 1297  LLC: 2048
rand_sets[171]: 1297
Assign rand_sets[172]: 1704  LLC: 2048
rand_sets[172]: 1704
Assign rand_sets[173]: 100  LLC: 2048
rand_sets[173]: 100
Assign rand_sets[174]: 711  LLC: 2048
rand_sets[174]: 711
Assign rand_sets[175]: 1243  LLC: 2048
rand_sets[175]: 1243
Assign rand_sets[176]: 1738  LLC: 2048
rand_sets[176]: 1738
Assign rand_sets[177]: 1504  LLC: 2048
rand_sets[177]: 1504
Assign rand_sets[178]: 96  LLC: 2048
rand_sets[178]: 96
Assign rand_sets[179]: 1249  LLC: 2048
rand_sets[179]: 1249
Assign rand_sets[180]: 1267  LLC: 2048
rand_sets[180]: 1267
Assign rand_sets[181]: 1727  LLC: 2048
rand_sets[181]: 1727
Assign rand_sets[182]: 1545  LLC: 2048
rand_sets[182]: 1545
Assign rand_sets[183]: 1792  LLC: 2048
rand_sets[183]: 1792
Assign rand_sets[184]: 1383  LLC: 2048
rand_sets[184]: 1383
Assign rand_sets[185]: 1954  LLC: 2048
rand_sets[185]: 1954
Assign rand_sets[186]: 739  LLC: 2048
rand_sets[186]: 739
Assign rand_sets[187]: 1061  LLC: 2048
rand_sets[187]: 1061
Assign rand_sets[188]: 672  LLC: 2048
rand_sets[188]: 672
Assign rand_sets[189]: 1057  LLC: 2048
rand_sets[189]: 1057
Assign rand_sets[190]: 1329  LLC: 2048
Assign rand_sets[190]: 1415  LLC: 2048
rand_sets[190]: 1415
Assign rand_sets[191]: 981  LLC: 2048
rand_sets[191]: 981
Assign rand_sets[192]: 98  LLC: 2048
rand_sets[192]: 98
Assign rand_sets[193]: 453  LLC: 2048
rand_sets[193]: 453
Assign rand_sets[194]: 1448  LLC: 2048
rand_sets[194]: 1448
Assign rand_sets[195]: 79  LLC: 2048
rand_sets[195]: 79
Assign rand_sets[196]: 126  LLC: 2048
rand_sets[196]: 126
Assign rand_sets[197]: 1582  LLC: 2048
rand_sets[197]: 1582
Assign rand_sets[198]: 1289  LLC: 2048
rand_sets[198]: 1289
Assign rand_sets[199]: 875  LLC: 2048
rand_sets[199]: 875
Assign rand_sets[200]: 404  LLC: 2048
rand_sets[200]: 404
Assign rand_sets[201]: 415  LLC: 2048
rand_sets[201]: 415
Assign rand_sets[202]: 1712  LLC: 2048
rand_sets[202]: 1712
Assign rand_sets[203]: 1389  LLC: 2048
Assign rand_sets[203]: 169  LLC: 2048
rand_sets[203]: 169
Assign rand_sets[204]: 158  LLC: 2048
rand_sets[204]: 158
Assign rand_sets[205]: 90  LLC: 2048
rand_sets[205]: 90
Assign rand_sets[206]: 1291  LLC: 2048
rand_sets[206]: 1291
Assign rand_sets[207]: 838  LLC: 2048
rand_sets[207]: 838
Assign rand_sets[208]: 1904  LLC: 2048
rand_sets[208]: 1904
Assign rand_sets[209]: 640  LLC: 2048
rand_sets[209]: 640
Assign rand_sets[210]: 1462  LLC: 2048
rand_sets[210]: 1462
Assign rand_sets[211]: 1487  LLC: 2048
rand_sets[211]: 1487
Assign rand_sets[212]: 1863  LLC: 2048
rand_sets[212]: 1863
Assign rand_sets[213]: 1036  LLC: 2048
rand_sets[213]: 1036
Assign rand_sets[214]: 1702  LLC: 2048
Assign rand_sets[214]: 933  LLC: 2048
rand_sets[214]: 933
Assign rand_sets[215]: 554  LLC: 2048
rand_sets[215]: 554
Assign rand_sets[216]: 1496  LLC: 2048
rand_sets[216]: 1496
Assign rand_sets[217]: 1708  LLC: 2048
rand_sets[217]: 1708
Assign rand_sets[218]: 1275  LLC: 2048
Assign rand_sets[218]: 416  LLC: 2048
rand_sets[218]: 416
Assign rand_sets[219]: 491  LLC: 2048
rand_sets[219]: 491
Assign rand_sets[220]: 183  LLC: 2048
rand_sets[220]: 183
Assign rand_sets[221]: 1657  LLC: 2048
rand_sets[221]: 1657
Assign rand_sets[222]: 1060  LLC: 2048
rand_sets[222]: 1060
Assign rand_sets[223]: 626  LLC: 2048
rand_sets[223]: 626
Assign rand_sets[224]: 1315  LLC: 2048
rand_sets[224]: 1315
Assign rand_sets[225]: 1682  LLC: 2048
rand_sets[225]: 1682
Assign rand_sets[226]: 1352  LLC: 2048
rand_sets[226]: 1352
Assign rand_sets[227]: 1152  LLC: 2048
rand_sets[227]: 1152
Assign rand_sets[228]: 965  LLC: 2048
rand_sets[228]: 965
Assign rand_sets[229]: 1190  LLC: 2048
rand_sets[229]: 1190
Assign rand_sets[230]: 1191  LLC: 2048
rand_sets[230]: 1191
Assign rand_sets[231]: 645  LLC: 2048
rand_sets[231]: 645
Assign rand_sets[232]: 695  LLC: 2048
rand_sets[232]: 695
Assign rand_sets[233]: 1495  LLC: 2048
rand_sets[233]: 1495
Assign rand_sets[234]: 1932  LLC: 2048
rand_sets[234]: 1932
Assign rand_sets[235]: 656  LLC: 2048
rand_sets[235]: 656
Assign rand_sets[236]: 1508  LLC: 2048
rand_sets[236]: 1508
Assign rand_sets[237]: 939  LLC: 2048
rand_sets[237]: 939
Assign rand_sets[238]: 355  LLC: 2048
rand_sets[238]: 355
Assign rand_sets[239]: 1092  LLC: 2048
rand_sets[239]: 1092
Assign rand_sets[240]: 850  LLC: 2048
rand_sets[240]: 850
Assign rand_sets[241]: 102  LLC: 2048
rand_sets[241]: 102
Assign rand_sets[242]: 1763  LLC: 2048
rand_sets[242]: 1763
Assign rand_sets[243]: 668  LLC: 2048
Assign rand_sets[243]: 51  LLC: 2048
rand_sets[243]: 51
Assign rand_sets[244]: 1317  LLC: 2048
rand_sets[244]: 1317
Assign rand_sets[245]: 2041  LLC: 2048
rand_sets[245]: 2041
Assign rand_sets[246]: 1374  LLC: 2048
rand_sets[246]: 1374
Assign rand_sets[247]: 682  LLC: 2048
rand_sets[247]: 682
Assign rand_sets[248]: 1466  LLC: 2048
rand_sets[248]: 1466
Assign rand_sets[249]: 1139  LLC: 2048
rand_sets[249]: 1139
Assign rand_sets[250]: 1632  LLC: 2048
rand_sets[250]: 1632
Assign rand_sets[251]: 1117  LLC: 2048
rand_sets[251]: 1117
Assign rand_sets[252]: 1611  LLC: 2048
rand_sets[252]: 1611
Assign rand_sets[253]: 1905  LLC: 2048
rand_sets[253]: 1905
Assign rand_sets[254]: 1662  LLC: 2048
Assign rand_sets[254]: 446  LLC: 2048
rand_sets[254]: 446
Assign rand_sets[255]: 1705  LLC: 2048
rand_sets[255]: 1705
DEADLOCK! CPU 0 instr_id: 1676960 translated: 2 fetched: 2 scheduled: 2 executed: 1 is_memory: 1 event: 557647 current: 1557647

Load Queue Entry: 0
[LQ] entry: 0 instr_id: 1677059 address: 5829a6ece3f8 translated: 2 fetched: 1
[LQ] entry: 1 instr_id: 0 address: 0 translated: 0 fetched: 1
[LQ] entry: 2 instr_id: 1676960 address: 5829a6ec9334 translated: 2 fetched: 1
[LQ] entry: 3 instr_id: 0 address: 0 translated: 0 fetched: 1
[LQ] entry: 4 instr_id: 1676994 address: 5829a6ec9828 translated: 2 fetched: 1
[LQ] entry: 5 instr_id: 1677013 address: 5829a6eca32c translated: 2 fetched: 1
[LQ] entry: 6 instr_id: 0 address: 0 translated: 0 fetched: 1
[LQ] entry: 7 instr_id: 1677040 address: 5829a6ecd81c translated: 2 fetched: 1
[LQ] entry: 8 instr_id: 0 address: 0 translated: 0 fetched: 1
[LQ] entry: 9 instr_id: 0 address: 0 translated: 0 fetched: 1
[LQ] entry: 10 instr_id: 0 address: 0 translated: 0 fetched: 1
[LQ] entry: 11 instr_id: 0 address: 0 translated: 0 fetched: 1
[LQ] entry: 12 instr_id: 0 address: 0 translated: 0 fetched: 1
[LQ] entry: 13 instr_id: 0 address: 0 translated: 0 fetched: 1
[LQ] entry: 14 instr_id: 0 address: 0 translated: 0 fetched: 1
[LQ] entry: 15 instr_id: 0 address: 0 translated: 0 fetched: 1
[LQ] entry: 16 instr_id: 0 address: 0 translated: 0 fetched: 1
[LQ] entry: 17 instr_id: 0 address: 0 translated: 0 fetched: 1
[LQ] entry: 18 instr_id: 0 address: 0 translated: 0 fetched: 1
[LQ] entry: 19 instr_id: 0 address: 0 translated: 0 fetched: 1
[LQ] entry: 20 instr_id: 0 address: 0 translated: 0 fetched: 1
[LQ] entry: 21 instr_id: 0 address: 0 translated: 0 fetched: 1
[LQ] entry: 22 instr_id: 0 address: 0 translated: 0 fetched: 1
[LQ] entry: 23 instr_id: 0 address: 0 translated: 0 fetched: 1
[LQ] entry: 24 instr_id: 0 address: 0 translated: 0 fetched: 1
[LQ] entry: 25 instr_id: 0 address: 0 translated: 0 fetched: 1
[LQ] entry: 26 instr_id: 0 address: 0 translated: 0 fetched: 1
[LQ] entry: 27 instr_id: 0 address: 0 translated: 0 fetched: 1
[LQ] entry: 28 instr_id: 0 address: 0 translated: 0 fetched: 1
[LQ] entry: 29 instr_id: 0 address: 0 translated: 0 fetched: 1
[LQ] entry: 30 instr_id: 0 address: 0 translated: 0 fetched: 1
[LQ] entry: 31 instr_id: 0 address: 0 translated: 0 fetched: 1
[LQ] entry: 32 instr_id: 0 address: 0 translated: 0 fetched: 1
[LQ] entry: 33 instr_id: 0 address: 0 translated: 0 fetched: 1
[LQ] entry: 34 instr_id: 0 address: 0 translated: 0 fetched: 1
[LQ] entry: 35 instr_id: 0 address: 0 translated: 0 fetched: 1
[LQ] entry: 36 instr_id: 0 address: 0 translated: 0 fetched: 1
[LQ] entry: 37 instr_id: 0 address: 0 translated: 0 fetched: 1
[LQ] entry: 38 instr_id: 0 address: 0 translated: 0 fetched: 1
[LQ] entry: 39 instr_id: 0 address: 0 translated: 0 fetched: 1
[LQ] entry: 40 instr_id: 0 address: 0 translated: 0 fetched: 1
[LQ] entry: 41 instr_id: 0 address: 0 translated: 0 fetched: 1
[LQ] entry: 42 instr_id: 0 address: 0 translated: 0 fetched: 1
[LQ] entry: 43 instr_id: 0 address: 0 translated: 0 fetched: 1
[LQ] entry: 44 instr_id: 0 address: 0 translated: 0 fetched: 1
[LQ] entry: 45 instr_id: 0 address: 0 translated: 0 fetched: 1
[LQ] entry: 46 instr_id: 0 address: 0 translated: 0 fetched: 1
[LQ] entry: 47 instr_id: 0 address: 0 translated: 0 fetched: 1
[LQ] entry: 48 instr_id: 0 address: 0 translated: 0 fetched: 1
[LQ] entry: 49 instr_id: 0 address: 0 translated: 0 fetched: 1
[LQ] entry: 50 instr_id: 0 address: 0 translated: 0 fetched: 1
[LQ] entry: 51 instr_id: 0 address: 0 translated: 0 fetched: 1
[LQ] entry: 52 instr_id: 0 address: 0 translated: 0 fetched: 1
[LQ] entry: 53 instr_id: 0 address: 0 translated: 0 fetched: 1
[LQ] entry: 54 instr_id: 0 address: 0 translated: 0 fetched: 1
[LQ] entry: 55 instr_id: 0 address: 0 translated: 0 fetched: 1
[LQ] entry: 56 instr_id: 0 address: 0 translated: 0 fetched: 1
[LQ] entry: 57 instr_id: 0 address: 0 translated: 0 fetched: 1
[LQ] entry: 58 instr_id: 0 address: 0 translated: 0 fetched: 1
[LQ] entry: 59 instr_id: 0 address: 0 translated: 0 fetched: 1
[LQ] entry: 60 instr_id: 0 address: 0 translated: 0 fetched: 1
[LQ] entry: 61 instr_id: 0 address: 0 translated: 0 fetched: 1
[LQ] entry: 62 instr_id: 0 address: 0 translated: 0 fetched: 1
[LQ] entry: 63 instr_id: 0 address: 0 translated: 0 fetched: 1
[LQ] entry: 64 instr_id: 0 address: 0 translated: 0 fetched: 1
[LQ] entry: 65 instr_id: 0 address: 0 translated: 0 fetched: 1
[LQ] entry: 66 instr_id: 0 address: 0 translated: 0 fetched: 1
[LQ] entry: 67 instr_id: 0 address: 0 translated: 0 fetched: 1
[LQ] entry: 68 instr_id: 0 address: 0 translated: 0 fetched: 1
[LQ] entry: 69 instr_id: 0 address: 0 translated: 0 fetched: 1
[LQ] entry: 70 instr_id: 0 address: 0 translated: 0 fetched: 1
[LQ] entry: 71 instr_id: 0 address: 0 translated: 0 fetched: 1
[LQ] entry: 72 instr_id: 0 address: 0 translated: 0 fetched: 1
[LQ] entry: 73 instr_id: 0 address: 0 translated: 0 fetched: 1
[LQ] entry: 74 instr_id: 0 address: 0 translated: 0 fetched: 1
[LQ] entry: 75 instr_id: 0 address: 0 translated: 0 fetched: 1
[LQ] entry: 76 instr_id: 0 address: 0 translated: 0 fetched: 1
[LQ] entry: 77 instr_id: 0 address: 0 translated: 0 fetched: 1
[LQ] entry: 78 instr_id: 0 address: 0 translated: 0 fetched: 1
[LQ] entry: 79 instr_id: 0 address: 0 translated: 0 fetched: 1
[LQ] entry: 80 instr_id: 0 address: 0 translated: 0 fetched: 1
[LQ] entry: 81 instr_id: 0 address: 0 translated: 0 fetched: 1
[LQ] entry: 82 instr_id: 0 address: 0 translated: 0 fetched: 1
[LQ] entry: 83 instr_id: 0 address: 0 translated: 0 fetched: 1
[LQ] entry: 84 instr_id: 0 address: 0 translated: 0 fetched: 1
[LQ] entry: 85 instr_id: 0 address: 0 translated: 0 fetched: 1
[LQ] entry: 86 instr_id: 0 address: 0 translated: 0 fetched: 1
[LQ] entry: 87 instr_id: 0 address: 0 translated: 0 fetched: 1
[LQ] entry: 88 instr_id: 0 address: 0 translated: 0 fetched: 1
[LQ] entry: 89 instr_id: 0 address: 0 translated: 0 fetched: 1
[LQ] entry: 90 instr_id: 0 address: 0 translated: 0 fetched: 1
[LQ] entry: 91 instr_id: 0 address: 0 translated: 0 fetched: 1
[LQ] entry: 92 instr_id: 0 address: 0 translated: 0 fetched: 1
[LQ] entry: 93 instr_id: 0 address: 0 translated: 0 fetched: 1
[LQ] entry: 94 instr_id: 0 address: 0 translated: 0 fetched: 1
[LQ] entry: 95 instr_id: 0 address: 0 translated: 0 fetched: 1
[LQ] entry: 96 instr_id: 0 address: 0 translated: 0 fetched: 1
[LQ] entry: 97 instr_id: 0 address: 0 translated: 0 fetched: 1
[LQ] entry: 98 instr_id: 0 address: 0 translated: 0 fetched: 1
[LQ] entry: 99 instr_id: 0 address: 0 translated: 0 fetched: 1
[LQ] entry: 100 instr_id: 0 address: 0 translated: 0 fetched: 1
[LQ] entry: 101 instr_id: 0 address: 0 translated: 0 fetched: 1
[LQ] entry: 102 instr_id: 0 address: 0 translated: 0 fetched: 1
[LQ] entry: 103 instr_id: 0 address: 0 translated: 0 fetched: 1
[LQ] entry: 104 instr_id: 0 address: 0 translated: 0 fetched: 1
[LQ] entry: 105 instr_id: 0 address: 0 translated: 0 fetched: 1
[LQ] entry: 106 instr_id: 0 address: 0 translated: 0 fetched: 1
[LQ] entry: 107 instr_id: 0 address: 0 translated: 0 fetched: 1
[LQ] entry: 108 instr_id: 0 address: 0 translated: 0 fetched: 1
[LQ] entry: 109 instr_id: 0 address: 0 translated: 0 fetched: 1
[LQ] entry: 110 instr_id: 0 address: 0 translated: 0 fetched: 1
[LQ] entry: 111 instr_id: 0 address: 0 translated: 0 fetched: 1
[LQ] entry: 112 instr_id: 0 address: 0 translated: 0 fetched: 1
[LQ] entry: 113 instr_id: 0 address: 0 translated: 0 fetched: 1
[LQ] entry: 114 instr_id: 0 address: 0 translated: 0 fetched: 1
[LQ] entry: 115 instr_id: 0 address: 0 translated: 0 fetched: 1
[LQ] entry: 116 instr_id: 0 address: 0 translated: 0 fetched: 1
[LQ] entry: 117 instr_id: 0 address: 0 translated: 0 fetched: 1
[LQ] entry: 118 instr_id: 0 address: 0 translated: 0 fetched: 1
[LQ] entry: 119 instr_id: 0 address: 0 translated: 0 fetched: 1
[LQ] entry: 120 instr_id: 0 address: 0 translated: 0 fetched: 1
[LQ] entry: 121 instr_id: 0 address: 0 translated: 0 fetched: 1
[LQ] entry: 122 instr_id: 0 address: 0 translated: 0 fetched: 1
[LQ] entry: 123 instr_id: 0 address: 0 translated: 0 fetched: 1
[LQ] entry: 124 instr_id: 0 address: 0 translated: 0 fetched: 1
[LQ] entry: 125 instr_id: 0 address: 0 translated: 0 fetched: 1
[LQ] entry: 126 instr_id: 0 address: 0 translated: 0 fetched: 1
[LQ] entry: 127 instr_id: 0 address: 0 translated: 0 fetched: 1

Store Queue Entry: 1
[SQ] entry: 0 instr_id: 0 address: 0 translated: 0 fetched: 0
[SQ] entry: 1 instr_id: 0 address: 0 translated: 0 fetched: 0
[SQ] entry: 2 instr_id: 0 address: 0 translated: 0 fetched: 0
[SQ] entry: 3 instr_id: 0 address: 0 translated: 0 fetched: 0
[SQ] entry: 4 instr_id: 0 address: 0 translated: 0 fetched: 0
[SQ] entry: 5 instr_id: 0 address: 0 translated: 0 fetched: 0
[SQ] entry: 6 instr_id: 0 address: 0 translated: 0 fetched: 0
[SQ] entry: 7 instr_id: 0 address: 0 translated: 0 fetched: 0
[SQ] entry: 8 instr_id: 0 address: 0 translated: 0 fetched: 0
[SQ] entry: 9 instr_id: 0 address: 0 translated: 0 fetched: 0
[SQ] entry: 10 instr_id: 0 address: 0 translated: 0 fetched: 0
[SQ] entry: 11 instr_id: 0 address: 0 translated: 0 fetched: 0
[SQ] entry: 12 instr_id: 0 address: 0 translated: 0 fetched: 0
[SQ] entry: 13 instr_id: 0 address: 0 translated: 0 fetched: 0
[SQ] entry: 14 instr_id: 0 address: 0 translated: 0 fetched: 0
[SQ] entry: 15 instr_id: 0 address: 0 translated: 0 fetched: 0
[SQ] entry: 16 instr_id: 0 address: 0 translated: 0 fetched: 0
[SQ] entry: 17 instr_id: 0 address: 0 translated: 0 fetched: 0
[SQ] entry: 18 instr_id: 0 address: 0 translated: 0 fetched: 0
[SQ] entry: 19 instr_id: 0 address: 0 translated: 0 fetched: 0
[SQ] entry: 20 instr_id: 0 address: 0 translated: 0 fetched: 0
[SQ] entry: 21 instr_id: 0 address: 0 translated: 0 fetched: 0
[SQ] entry: 22 instr_id: 0 address: 0 translated: 0 fetched: 0
[SQ] entry: 23 instr_id: 0 address: 0 translated: 0 fetched: 0
[SQ] entry: 24 instr_id: 0 address: 0 translated: 0 fetched: 0
[SQ] entry: 25 instr_id: 0 address: 0 translated: 0 fetched: 0
[SQ] entry: 26 instr_id: 0 address: 0 translated: 0 fetched: 0
[SQ] entry: 27 instr_id: 0 address: 0 translated: 0 fetched: 0
[SQ] entry: 28 instr_id: 0 address: 0 translated: 0 fetched: 0
[SQ] entry: 29 instr_id: 0 address: 0 translated: 0 fetched: 0
[SQ] entry: 30 instr_id: 0 address: 0 translated: 0 fetched: 0
[SQ] entry: 31 instr_id: 0 address: 0 translated: 0 fetched: 0
[SQ] entry: 32 instr_id: 0 address: 0 translated: 0 fetched: 0
[SQ] entry: 33 instr_id: 0 address: 0 translated: 0 fetched: 0
[SQ] entry: 34 instr_id: 0 address: 0 translated: 0 fetched: 0
[SQ] entry: 35 instr_id: 0 address: 0 translated: 0 fetched: 0
[SQ] entry: 36 instr_id: 0 address: 0 translated: 0 fetched: 0
[SQ] entry: 37 instr_id: 0 address: 0 translated: 0 fetched: 0
[SQ] entry: 38 instr_id: 0 address: 0 translated: 0 fetched: 0
[SQ] entry: 39 instr_id: 0 address: 0 translated: 0 fetched: 0
[SQ] entry: 40 instr_id: 0 address: 0 translated: 0 fetched: 0
[SQ] entry: 41 instr_id: 0 address: 0 translated: 0 fetched: 0
[SQ] entry: 42 instr_id: 0 address: 0 translated: 0 fetched: 0
[SQ] entry: 43 instr_id: 0 address: 0 translated: 0 fetched: 0
[SQ] entry: 44 instr_id: 0 address: 0 translated: 0 fetched: 0
[SQ] entry: 45 instr_id: 0 address: 0 translated: 0 fetched: 0
[SQ] entry: 46 instr_id: 0 address: 0 translated: 0 fetched: 0
[SQ] entry: 47 instr_id: 0 address: 0 translated: 0 fetched: 0
[SQ] entry: 48 instr_id: 0 address: 0 translated: 0 fetched: 0
[SQ] entry: 49 instr_id: 0 address: 0 translated: 0 fetched: 0
[SQ] entry: 50 instr_id: 0 address: 0 translated: 0 fetched: 0
[SQ] entry: 51 instr_id: 0 address: 0 translated: 0 fetched: 0
[SQ] entry: 52 instr_id: 0 address: 0 translated: 0 fetched: 0
[SQ] entry: 53 instr_id: 0 address: 0 translated: 0 fetched: 0
[SQ] entry: 54 instr_id: 0 address: 0 translated: 0 fetched: 0
[SQ] entry: 55 instr_id: 0 address: 0 translated: 0 fetched: 0
[SQ] entry: 56 instr_id: 0 address: 0 translated: 0 fetched: 0
[SQ] entry: 57 instr_id: 0 address: 0 translated: 0 fetched: 0
[SQ] entry: 58 instr_id: 0 address: 0 translated: 0 fetched: 0
[SQ] entry: 59 instr_id: 0 address: 0 translated: 0 fetched: 0
[SQ] entry: 60 instr_id: 0 address: 0 translated: 0 fetched: 0
[SQ] entry: 61 instr_id: 0 address: 0 translated: 0 fetched: 0
[SQ] entry: 62 instr_id: 0 address: 0 translated: 0 fetched: 0
[SQ] entry: 63 instr_id: 0 address: 0 translated: 0 fetched: 0
[SQ] entry: 64 instr_id: 0 address: 0 translated: 0 fetched: 0
[SQ] entry: 65 instr_id: 0 address: 0 translated: 0 fetched: 0
[SQ] entry: 66 instr_id: 0 address: 0 translated: 0 fetched: 0
[SQ] entry: 67 instr_id: 0 address: 0 translated: 0 fetched: 0
[SQ] entry: 68 instr_id: 0 address: 0 translated: 0 fetched: 0
[SQ] entry: 69 instr_id: 0 address: 0 translated: 0 fetched: 0
[SQ] entry: 70 instr_id: 0 address: 0 translated: 0 fetched: 0
[SQ] entry: 71 instr_id: 0 address: 0 translated: 0 fetched: 0

L1D_MSHR Entry: 7
[L1D_MSHR] entry: 0 instr_id: 1677013 rob_index: 85 address: 160a69bb28c full_addr: 5829a6eca32c type: 0 fill_level: 1 lq_index: 5 sq_index: 0
[L1D_MSHR] entry: 1 instr_id: 1676960 rob_index: 32 address: 160a69bb24c full_addr: 5829a6ec9334 type: 0 fill_level: 1 lq_index: 2 sq_index: 0
[L1D_MSHR] entry: 2 instr_id: 1676994 rob_index: 66 address: 160a69bb260 full_addr: 5829a6ec9828 type: 0 fill_level: 1 lq_index: 4 sq_index: 0
[L1D_MSHR] entry: 3 instr_id: 0 rob_index: -1 address: 0 full_addr: 0 type: 0 fill_level: -1 lq_index: 0 sq_index: 0
[L1D_MSHR] entry: 4 instr_id: 1677040 rob_index: 112 address: 160a69bb360 full_addr: 5829a6ecd81c type: 0 fill_level: 1 lq_index: 7 sq_index: 0
[L1D_MSHR] entry: 5 instr_id: 1677059 rob_index: 131 address: 160a69bb38f full_addr: 5829a6ece3f8 type: 0 fill_level: 1 lq_index: 0 sq_index: 0
[L1D_MSHR] entry: 6 instr_id: 0 rob_index: -1 address: 0 full_addr: 0 type: 0 fill_level: -1 lq_index: 0 sq_index: 0
[L1D_MSHR] entry: 7 instr_id: 0 rob_index: -1 address: 0 full_addr: 0 type: 0 fill_level: -1 lq_index: 0 sq_index: 0
[L1D_MSHR] entry: 8 instr_id: 0 rob_index: -1 address: 0 full_addr: 0 type: 0 fill_level: -1 lq_index: 0 sq_index: 0
[L1D_MSHR] entry: 9 instr_id: 0 rob_index: -1 address: 0 full_addr: 0 type: 0 fill_level: -1 lq_index: 0 sq_index: 0
[L1D_MSHR] entry: 10 instr_id: 0 rob_index: -1 address: 0 full_addr: 0 type: 0 fill_level: -1 lq_index: 0 sq_index: 0
[L1D_MSHR] entry: 11 instr_id: 0 rob_index: -1 address: 0 full_addr: 0 type: 0 fill_level: -1 lq_index: 0 sq_index: 0
[L1D_MSHR] entry: 12 instr_id: 0 rob_index: -1 address: 0 full_addr: 0 type: 0 fill_level: -1 lq_index: 0 sq_index: 0
[L1D_MSHR] entry: 13 instr_id: 0 rob_index: -1 address: 0 full_addr: 0 type: 0 fill_level: -1 lq_index: 0 sq_index: 0
[L1D_MSHR] entry: 14 instr_id: 0 rob_index: -1 address: 0 full_addr: 0 type: 0 fill_level: -1 lq_index: 0 sq_index: 0
[L1D_MSHR] entry: 15 instr_id: 0 rob_index: -1 address: 0 full_addr: 0 type: 0 fill_level: -1 lq_index: 0 sq_index: 0
bimodal-no-no-no-no-ship-1core-inclusive: src/main.cc:267: void print_deadlock(uint32_t): Assertion `0' failed.
